<%#INTERFACE
  parameter "case_name"
  parameter "ach", :default=>0.67
  parameter "win_panes", :default=>"WINDOW SINGLE PANE"
  parameter "int_load", :default=>2930.711
  parameter "win_frame_u", :default=>51.649480578971 # W/m2K Surface to surface conductance from Table 7-4
  parameter "ext_sol_abs_exposed", :default=>0.6 # applied to exterior face of exposed surfaces (exterior walls, roofs, end gables, doors)
  parameter "f_factor", :default=>1.68536980053971 # W/m.K, GARD approach for modeling the slab
  parameter "c_factor", :default=>0.967008195096609 # W/m.K
%>

  VERSION,9.3;

  Building,
    <%= case_name %>,                   !- Name
    0.0,                     !- North Axis {deg}
    Suburbs,                 !- Terrain
    0.04,                    !- Loads Convergence Tolerance Value
    0.004,                   !- Temperature Convergence Tolerance Value {deltaC}
    FullInteriorAndExterior, !- Solar Distribution
    ,                        !- Maximum Number of Warmup Days
    1;                       !- Minimum Number of Warmup Days

  Timestep,4;

  SurfaceConvectionAlgorithm:Inside,TARP;

  SurfaceConvectionAlgorithm:Outside,DOE-2;

  HeatBalanceAlgorithm,ConductionTransferFunction;

  ShadowCalculation,
    PolygonClipping,  !- Calculation Method
    Periodic;                       !- Calculation Frequency

  SimulationControl,
    No,                      !- Do Zone Sizing Calculation
    No,                      !- Do System Sizing Calculation
    No,                      !- Do Plant Sizing Calculation
    No,                      !- Run Simulation for Sizing Periods
    Yes;                     !- Run Simulation for Weather File Run Periods

  RunPeriod,
    RUNPERIOD 1,             !- Name
    1,                       !- Begin Month
    1,                       !- Begin Day of Month
    ,                        !- Begin Year
    12,                      !- End Month
    31,                      !- End Day of Month
    ,                        !- End Year
    ,                        !- Day of Week for Start Day
    No,                      !- Use Weather File Holidays and Special Days
    No,                      !- Use Weather File Daylight Saving Period
    No,                      !- Apply Weekend Holiday Rule
    No,                      !- Use Weather File Rain Indicators
    No,                      !- Use Weather File Snow Indicators
    ;                        !- Treat Weather as Actual
<% if case_name.include?("L155A") %>
Shading:Building,
  South Wall Overhang,     !- Name
  180,                     !- Azimuth Angle {deg}
  0,                       !- Tilt Angle {deg}
  0,                       !- Starting X Coordinate {m}
  -0.761962839691077,      !- Starting Y Coordinate {m}
  2.43828108701145,        !- Starting Z Coordinate {m}
  17.3727527449566,        !- Length {m}
  0.761962839691077;       !- Height {m}
<% end %>

Material:AirGap,
   AirGap,                  !- Name
   0.177871290333931;       !- Thermal Resistance {m2-K/W}

 Material,
   FIBERGLASS BATT R11,     !- Name
   Rough,                   !- Roughness
   8.89001802122336E-02,    !- Thickness {m}
   4.59277014191222E-02,    !- Conductivity {W/m-K}
   9.61107175253399,        !- Density {kg/m3}
   836.800006332062,        !- Specific Heat {J/kg-K}
   0.9,                     !- Thermal Absorptance
   0.6,                     !- Solar Absorptance
   0.6;                     !- Visible Absorptance

 Material,
   FIBERGLASS BATT R18,     !- Name
   Rough,                   !- Roughness
   0.139700283190653,       !- Thickness {m}
   4.77302014748178E-02,    !- Conductivity {W/m-K}
   10.8925479862052,        !- Density {kg/m3}
   836.800006332062,        !- Specific Heat {J/kg-K}
   0.9,                     !- Thermal Absorptance
   0.6,                     !- Solar Absorptance
   0.6;                     !- Visible Absorptance

 Material,
   FIBERGLASS BATT R38,     !- Name
   Rough,                   !- Roughness
   0.304800617870515,       !- Thickness {m}
   4.49904013901606E-02,    !- Conductivity {W/m-K}
   9.61107175253399,        !- Density {kg/m3}
   836.800006332062,        !- Specific Heat {J/kg-K}
   0.9,                     !- Thermal Absorptance
   0.6,                     !- Solar Absorptance
   0.6;

 Material,
   POLYISOCYANURATE BD INSUL,  !- Name
   Rough,                   !- Roughness
   2.54000514892096E-02,    !- Thickness {m}
   2.00438006193344E-02,    !- Conductivity {W/m-K}
   32.03690584178,          !- Density {kg/m3}
   920.480006965268,        !- Specific Heat {J/kg-K}
   0.9,                     !- Thermal Absorptance
   0.7,                     !- Solar Absorptance
   0.7;                     !- Visible Absorptance

 Material,
   L200 JOIST 2X6 24 OC,    !- Name
   Rough,                   !- Roughness
   8.89001802122336E-02,    !- Thickness {m}
   0.115576303571198,       !- Conductivity {W/m-K}
   512.590493468479,        !- Density {kg/m3}
   1380.7200104479,         !- Specific Heat {J/kg-K}
   0.9,                     !- Thermal Absorptance
   0.6,                     !- Solar Absorptance
   0.6;                     !- Visible Absorptance

<% if (case_name.include?("L100A")) || (case_name.include?("L110A")) || (case_name.include?("L120A")) || (case_name.include?("L170A")) || (case_name.include?("L200A")) || (case_name.include?("L202A")) || (case_name.include?("L130A"))%>
FenestrationSurface:Detailed,
  SOUTH DOOR,              !- Name
  Door,                    !- Surface Type
  DOOR,                    !- Construction Name
  Z1 SOUTH WALL BATTING,   !- Building Surface Name
  ,                        !- Outside Boundary Condition Object
  autocalculate,           !- View Factor to Ground
  ,                        !- Frame and Divider Name
  ,                        !- Multiplier
  4,                       !- Number of Vertices
  10.0579094839222,0.000000,2.03291685629579,  !- X,Y,Z ==> Vertex 1 {m}
  10.0579094839222,0.000000,0.000000,  !- X,Y,Z ==> Vertex 2 {m}
  10.9722648915515,0.000000,0.000000,  !- X,Y,Z ==> Vertex 3 {m}
  10.9722648915515,0.000000,2.03291685629579;  !- X,Y,Z ==> Vertex 4 {m}

                                      !- X,Y,Z  4 {m}
                                      !- X,Y,Z  1 {m}
                                      !- X,Y,Z  2 {m}
                                      !- X,Y,Z  3 {m}

FenestrationSurface:Detailed,
  NORTH DOOR,              !- Name
  Door,                    !- Surface Type
  DOOR,                    !- Construction Name
  Z1 NORTH WALL BATTING,   !- Building Surface Name
  ,                        !- Outside Boundary Condition Object
  autocalculate,           !- View Factor to Ground
  ,                        !- Frame and Divider Name
  ,                        !- Multiplier
  4,                       !- Number of Vertices
  10.3626946197987,8.22919866866364,2.03291685629579,  !- X,Y,Z ==> Vertex 1 {m}
  10.3626946197987,8.22919866866364,0.000000,  !- X,Y,Z ==> Vertex 2 {m}
  9.44833921216936,8.22919866866364,0.000000,  !- X,Y,Z ==> Vertex 3 {m}
  9.44833921216936,8.22919866866364,2.03291685629579;  !- X,Y,Z ==> Vertex 4 {m}

                                      !- X,Y,Z  4 {m}

FenestrationSurface:Detailed,
  SOUTH FRAMED 2,          !- Name
  Door,                    !- Surface Type
  EXTERIOR WALL (FRAMING), !- Construction Name
  Z1 SOUTH WALL BATTING,   !- Building Surface Name
  ,                        !- Outside Boundary Condition Object
  autocalculate,           !- View Factor to Ground
  ,                        !- Frame and Divider Name
  ,                        !- Multiplier
  4,                       !- Number of Vertices
  15.2392567938216,0.000000,2.438,  !- X,Y,Z ==> Vertex 1 {m}
  15.2392567938216,0.000000,0.01,  !- X,Y,Z ==> Vertex 2 {m}
  17.0108203961033,0,0.01,  !- X,Y,Z ==> Vertex 3 {m}
  17.0108203961033,0.000000,2.438;  !- X,Y,Z ==> Vertex 4 {m}

                                      !- X,Y,Z  4 {m}

FenestrationSurface:Detailed,
  EAST FRAMED 1,           !- Name
  Door,                    !- Surface Type
  EXTERIOR WALL (FRAMING), !- Construction Name
  Z1 EAST WALL BATTING,    !- Building Surface Name
  ,                        !- Outside Boundary Condition Object
  autocalculate,           !- View Factor to Ground
  ,                        !- Frame and Divider Name
  ,                        !- Multiplier
  4,                       !- Number of Vertices
  17.3727527449566,0.152392567938216,2.438,  !- X,Y,Z ==> Vertex 1 {m}
  17.3727527449566,0.152392567938216,0.01,  !- X,Y,Z ==> Vertex 2 {m}
  17.3727527449566,0.914355407629293,0.01,  !- X,Y,Z ==> Vertex 3 {m}
  17.3727527449566,0.914355407629293,2.438;  !- X,Y,Z ==> Vertex 4 {m}

                                      !- X,Y,Z  4 {m}
                                      !- X,Y,Z  1 {m}
                                      !- X,Y,Z  2 {m}
                                      !- X,Y,Z  3 {m}

FenestrationSurface:Detailed,
  EAST FRAMED 2,           !- Name
  Door,                    !- Surface Type
  EXTERIOR WALL (FRAMING), !- Construction Name
  Z1 EAST WALL BATTING,    !- Building Surface Name
  ,                        !- Outside Boundary Condition Object
  autocalculate,           !- View Factor to Ground
  ,                        !- Frame and Divider Name
  ,                        !- Multiplier
  4,                       !- Number of Vertices
  17.3727527449566,7.01005812515791,2.438,  !- X,Y,Z ==> Vertex 1 {m}
  17.3727527449566,7.01005812515791,0.01,  !- X,Y,Z ==> Vertex 2 {m}
  17.3727527449566,7.87869576240574,0.01,  !- X,Y,Z ==> Vertex 3 {m}
  17.3727527449566,7.87869576240574,2.438;  !- X,Y,Z ==> Vertex 4 {m}

                                      !- X,Y,Z  4 {m}
                                      !- X,Y,Z  1 {m}

FenestrationSurface:Detailed,
  WEST FRAMED 1,           !- Name
  Door,                    !- Surface Type
  EXTERIOR WALL (FRAMING), !- Construction Name
  Z1 WEST WALL BATTING,    !- Building Surface Name
  ,                        !- Outside Boundary Condition Object
  autocalculate,           !- View Factor to Ground
  ,                        !- Frame and Divider Name
  ,                        !- Multiplier
  4,                       !- Number of Vertices
  0,1.06674797556751,2.438,  !- X,Y,Z ==> Vertex 1 {m}
  0,1.06674797556751,0.01,  !- X,Y,Z ==> Vertex 2 {m}
  0,0.457177703814647,0.01,  !- X,Y,Z ==> Vertex 3 {m}
  0,0.457177703814647,2.438;  !- X,Y,Z ==> Vertex 4 {m}

                                      !- X,Y,Z  4 {m}
                                      !- X,Y,Z  1 {m}

FenestrationSurface:Detailed,
  WEST FRAMED 2,           !- Name
  Door,                    !- Surface Type
  EXTERIOR WALL (FRAMING), !- Construction Name
  Z1 WEST WALL BATTING,    !- Building Surface Name
  ,                        !- Outside Boundary Condition Object
  autocalculate,           !- View Factor to Ground
  ,                        !- Frame and Divider Name
  ,                        !- Multiplier
  4,                       !- Number of Vertices
  0,8.07680610072542,2.438,  !- X,Y,Z ==> Vertex 1 {m}
  0,8.07680610072542,0.01,  !- X,Y,Z ==> Vertex 2 {m}
  0,7.05577589553938,0.01,  !- X,Y,Z ==> Vertex 3 {m}
  0,7.05577589553938,2.438;  !- X,Y,Z ==> Vertex 4 {m}

                                      !- X,Y,Z  4 {m}
                                      !- X,Y,Z  1 {m}
                                      !- X,Y,Z  2 {m}
                                      !- X,Y,Z  3 {m}

FenestrationSurface:Detailed,
  NORTH FRAMED 2,          !- Name
  Door,                    !- Surface Type
  EXTERIOR WALL (FRAMING), !- Construction Name
  Z1 NORTH WALL BATTING,   !- Building Surface Name
  ,                        !- Outside Boundary Condition Object
  autocalculate,           !- View Factor to Ground
  ,                        !- Frame and Divider Name
  ,                        !- Multiplier
  4,                       !- Number of Vertices
  2.07634873815819,8.22919866866364,2.438,  !- X,Y,Z ==> Vertex 1 {m}
  2.07634873815819,8.22919866866364,0.01,  !- X,Y,Z ==> Vertex 2 {m}
  0.304785135876431,8.22919866866364,0.01,  !- X,Y,Z ==> Vertex 3 {m}
  0.304785135876431,8.22919866866364,2.438;  !- X,Y,Z ==> Vertex 4 {m}

                                      !- X,Y,Z  4 {m}
                                      !- X,Y,Z  1 {m}
                                      !- X,Y,Z  2 {m}
                                      !- X,Y,Z  3 {m}

FenestrationSurface:Detailed,
  NORTH FRAMED 1,          !- Name
  Door,                    !- Surface Type
  EXTERIOR WALL (FRAMING), !- Construction Name
  Z1 NORTH WALL BATTING,   !- Building Surface Name
  ,                        !- Outside Boundary Condition Object
  autocalculate,           !- View Factor to Ground
  ,                        !- Frame and Divider Name
  ,                        !- Multiplier
  4,                       !- Number of Vertices
  14.7820790900069,8.22919866866364,2.438,  !- X,Y,Z ==> Vertex 1 {m}
  14.7820790900069,8.22919866866364,0.01,  !- X,Y,Z ==> Vertex 2 {m}
  13.2581534106247,8.22919866866364,0.01,  !- X,Y,Z ==> Vertex 3 {m}
  13.2581534106247,8.22919866866364,2.438;  !- X,Y,Z ==> Vertex 4 {m}

                                      !- X,Y,Z  4 {m}

FenestrationSurface:Detailed,
  SOUTH FRAMED 1,          !- Name
  Door,                    !- Surface Type
  EXTERIOR WALL (FRAMING), !- Construction Name
  Z1 SOUTH WALL BATTING,   !- Building Surface Name
  ,                        !- Outside Boundary Condition Object
  autocalculate,           !- View Factor to Ground
  ,                        !- Frame and Divider Name
  ,                        !- Multiplier
  4,                       !- Number of Vertices
  2.59067365494966,0,2.438,  !- X,Y,Z ==> Vertex 1 {m}
  2.59067365494966,0.000000,0.01,  !- X,Y,Z ==> Vertex 2 {m}
  4.11459933433182,0.000000,0.01,  !- X,Y,Z ==> Vertex 3 {m}
  4.11459933433182,0.000000,2.438;  !- X,Y,Z ==> Vertex 4 {m}

                                      !- X,Y,Z  4 {m}
Window,
    East 1,                  !- Name
    <%= win_panes %>,      !- Construction Name
    Z1 EAST WALL BATTING,    !- Building Surface Name
    Frame-Divider_1,         !- Frame and Divider Name
    1,                       !- Multiplier
    1.59377237461555,        !- Starting X Coordinate {m}
    0.679416966986256,       !- Starting Z Coordinate {m}
    0.774662321947641,       !- Length {m}
    1.3842325937005;         !- Height {m}

  Window,
    East 2,                  !- Name
    <%= win_panes %>,      !- Construction Name
    Z1 EAST WALL BATTING,    !- Building Surface Name
    Frame-Divider_1,         !- Frame and Divider Name
    1,                       !- Multiplier
    3.72726832575057,        !- Starting X Coordinate {m}
    0.679416966986256,       !- Starting Z Coordinate {m}
    0.774662321947641,       !- Length {m}
    1.3842325937005;         !- Height {m}

  Window,
    East 3,                  !- Name
    <%= win_panes %>,      !- Construction Name
    Z1 EAST WALL BATTING,    !- Building Surface Name
    Frame-Divider_1,         !- Frame and Divider Name
    1,                       !- Multiplier
    5.86076427688558,        !- Starting X Coordinate {m}
    0.679416966986256,       !- Starting Z Coordinate {m}
    0.774662321947641,       !- Length {m}
    1.3842325937005;         !- Height {m}

  Window,
    West 1,                  !- Name
    <%= win_panes %>,      !- Construction Name
    Z1 WEST WALL BATTING,    !- Building Surface Name
    Frame-Divider_1,         !- Frame and Divider Name
    1,                       !- Multiplier
    1.28898723873912,        !- Starting X Coordinate {m}
    0.679416966986256,       !- Starting Z Coordinate {m}
    0.774662321947641,       !- Length {m}
    1.3842325937005;         !- Height {m}

  Window,
    West 2,                  !- Name
    <%= win_panes %>,      !- Construction Name
    Z1 WEST WALL BATTING,    !- Building Surface Name
    Frame-Divider_1,         !- Frame and Divider Name
    1,                       !- Multiplier
    3.42248318987414,        !- Starting X Coordinate {m}
    0.679416966986256,       !- Starting Z Coordinate {m}
    0.774662321947641,       !- Length {m}
    1.3842325937005;         !- Height {m}

  Window,
    West 3,                  !- Name
    <%= win_panes %>,      !- Construction Name
    Z1 WEST WALL BATTING,    !- Building Surface Name
    Frame-Divider_1,         !- Frame and Divider Name
    1,                       !- Multiplier
    5.86076427688558,        !- Starting X Coordinate {m}
    0.679416966986256,       !- Starting Z Coordinate {m}
    0.774662321947641,       !- Length {m}
    1.3842325937005;         !- Height {m}

  Window,
    South 1,                 !- Name
    <%= win_panes %>,      !- Construction Name
    Z1 SOUTH WALL BATTING,   !- Building Surface Name
    Frame-Divider_1,         !- Frame and Divider Name
    1,                       !- Multiplier
    1.59377237461555,        !- Starting X Coordinate {m}
    0.679416966986256,       !- Starting Z Coordinate {m}
    0.774662321947641,       !- Length {m}
    1.3842325937005;         !- Height {m}

  Window,
    South 2,                 !- Name
    <%= win_panes %>,      !- Construction Name
    Z1 SOUTH WALL BATTING,   !- Building Surface Name
    Frame-Divider_1,         !- Frame and Divider Name
    1,                       !- Multiplier
    4.33683859750343,        !- Starting X Coordinate {m}
    0.679416966986256,       !- Starting Z Coordinate {m}
    0.774662321947641,       !- Length {m}
    1.3842325937005;         !- Height {m}

  Window,
    South 3,                 !- Name
    <%= win_panes %>,      !- Construction Name
    Z1 SOUTH WALL BATTING,   !- Building Surface Name
    Frame-Divider_1,         !- Frame and Divider Name
    1,                       !- Multiplier
    5.86076427688558,        !- Starting X Coordinate {m}
    0.679416966986256,       !- Starting Z Coordinate {m}
    0.774662321947641,       !- Length {m}
    1.3842325937005;         !- Height {m}

  Window,
    South 4,                 !- Name
    <%= win_panes %>,      !- Construction Name
    Z1 SOUTH WALL BATTING,   !- Building Surface Name
    Frame-Divider_1,         !- Frame and Divider Name
    1,                       !- Multiplier
    7.38468995626774,        !- Starting X Coordinate {m}
    0.679416966986256,       !- Starting Z Coordinate {m}
    0.774662321947641,       !- Length {m}
    1.3842325937005;         !- Height {m}

  Window,
    South 5,                 !- Name
    <%= win_panes %>,      !- Construction Name
    Z1 SOUTH WALL BATTING,   !- Building Surface Name
    Frame-Divider_1,         !- Frame and Divider Name
    1,                       !- Multiplier
    8.90861563564989,        !- Starting X Coordinate {m}
    0.679416966986256,       !- Starting Z Coordinate {m}
    0.774662321947641,       !- Length {m}
    1.3842325937005;         !- Height {m}

  Window,
    South 6,                 !- Name
    <%= win_panes %>,      !- Construction Name
    Z1 SOUTH WALL BATTING,   !- Building Surface Name
    Frame-Divider_1,         !- Frame and Divider Name
    1,                       !- Multiplier
    13.4803926737964,        !- Starting X Coordinate {m}
    0.679416966986256,       !- Starting Z Coordinate {m}
    0.774662321947641,       !- Length {m}
    1.3842325937005;         !- Height {m}

  Window,
    North 1,                 !- Name
    <%= win_panes %>,      !- Construction Name
    Z1 NORTH WALL BATTING,   !- Building Surface Name
    Frame-Divider_1,         !- Frame and Divider Name
    1,                       !- Multiplier
    1.59377237461555,        !- Starting X Coordinate {m}
    0.679416966986256,       !- Starting Z Coordinate {m}
    0.774662321947641,       !- Length {m}
    1.3842325937005;         !- Height {m}

  Window,
    North 2,                 !- Name
    <%= win_panes %>,      !- Construction Name
    Z1 NORTH WALL BATTING,   !- Building Surface Name
    Frame-Divider_1,         !- Frame and Divider Name
    1,                       !- Multiplier
    4.33683859750343,        !- Starting X Coordinate {m}
    0.679416966986256,       !- Starting Z Coordinate {m}
    0.774662321947641,       !- Length {m}
    1.3842325937005;         !- Height {m}

  Window,
    North 3,                 !- Name
    <%= win_panes %>,      !- Construction Name
    Z1 NORTH WALL BATTING,   !- Building Surface Name
    Frame-Divider_1,         !- Frame and Divider Name
    1,                       !- Multiplier
    8.60383049977346,        !- Starting X Coordinate {m}
    0.679416966986256,       !- Starting Z Coordinate {m}
    0.774662321947641,       !- Length {m}
    1.3842325937005;         !- Height {m}

  Window,
    North 4,                 !- Name
    <%= win_panes %>,      !- Construction Name
    Z1 NORTH WALL BATTING,   !- Building Surface Name
    Frame-Divider_1,         !- Frame and Divider Name
    1,                       !- Multiplier
    10.432541315032,         !- Starting X Coordinate {m}
    0.679416966986256,       !- Starting Z Coordinate {m}
    0.774662321947641,       !- Length {m}
    1.3842325937005;         !- Height {m}

  Window,
    North 5,                 !- Name
    <%= win_panes %>,      !- Construction Name
    Z1 NORTH WALL BATTING,   !- Building Surface Name
    Frame-Divider_1,         !- Frame and Divider Name
    1,                       !- Multiplier
    12.5660372661671,        !- Starting X Coordinate {m}
    0.679416966986256,       !- Starting Z Coordinate {m}
    0.774662321947641,       !- Length {m}
    1.3842325937005;         !- Height {m}

  Window,
    North 6,                 !- Name
    <%= win_panes %>,      !- Construction Name
    Z1 NORTH WALL BATTING,   !- Building Surface Name
    Frame-Divider_1,         !- Frame and Divider Name
    1,                       !- Multiplier
    14.0899629455492,        !- Starting X Coordinate {m}
    0.679416966986256,       !- Starting Z Coordinate {m}
    0.774662321947641,       !- Length {m}
    1.3842325937005;         !- Height {m}

<% elsif case_name.include?("L160A") %>
FenestrationSurface:Detailed,
    SOUTH DOOR,              !- Name
    Door,                    !- Surface Type
    DOOR,                    !- Construction Name
    Z1 SOUTH WALL BATTING,   !- Building Surface Name
    ,                        !- Outside Boundary Condition Object
    autocalculate,           !- View Factor to Ground
    ,                        !- Frame and Divider Name
    ,                        !- Multiplier
    4,                       !- Number of Vertices
    10.0579094839222,0.000000,2.03291685629579,  !- X,Y,Z ==> Vertex 1 {m}
    10.0579094839222,0.000000,0.000000,  !- X,Y,Z ==> Vertex 2 {m}
    10.9722648915515,0.000000,0.000000,  !- X,Y,Z ==> Vertex 3 {m}
    10.9722648915515,0.000000,2.03291685629579;  !- X,Y,Z ==> Vertex 4 {m}

                                        !- X,Y,Z  4 {m}
                                        !- X,Y,Z  1 {m}
                                        !- X,Y,Z  2 {m}
                                        !- X,Y,Z  3 {m}

  FenestrationSurface:Detailed,
    NORTH DOOR,              !- Name
    Door,                    !- Surface Type
    DOOR,                    !- Construction Name
    Z1 NORTH WALL BATTING,   !- Building Surface Name
    ,                        !- Outside Boundary Condition Object
    autocalculate,           !- View Factor to Ground
    ,                        !- Frame and Divider Name
    ,                        !- Multiplier
    4,                       !- Number of Vertices
    6.09570271752862,8.22919866866364,2.03291685629579,  !- X,Y,Z ==> Vertex 1 {m}
    6.09570271752862,8.22919866866364,0.000000,  !- X,Y,Z ==> Vertex 2 {m}
    5.18134730989933,8.22919866866364,0.000000,  !- X,Y,Z ==> Vertex 3 {m}
    5.18134730989933,8.22919866866364,2.03291685629579;  !- X,Y,Z ==> Vertex 4 {m}

                                        !- X,Y,Z  4 {m}

FenestrationSurface:Detailed,
  SOUTH FRAMED 2,          !- Name
  Door,                    !- Surface Type
  EXTERIOR WALL (FRAMING), !- Construction Name
  Z1 SOUTH WALL BATTING,   !- Building Surface Name
  ,                        !- Outside Boundary Condition Object
  autocalculate,           !- View Factor to Ground
  ,                        !- Frame and Divider Name
  ,                        !- Multiplier
  4,                       !- Number of Vertices
  12.2477906851944,0.000000,1.82871081525859,  !- X,Y,Z ==> Vertex 1 {m}
  12.2477906851944,0.000000,0.609570271752862,  !- X,Y,Z ==> Vertex 2 {m}
  16.4004881615108,0,0.609570271752862,  !- X,Y,Z ==> Vertex 3 {m}
  16.4004881615108,0.000000,1.82871081525859;  !- X,Y,Z ==> Vertex 4 {m}

                                      !- X,Y,Z  4 {m}

FenestrationSurface:Detailed,
    EAST FRAMED 1,           !- Name
    Door,                    !- Surface Type
    EXTERIOR WALL (FRAMING), !- Construction Name
    Z1 EAST WALL BATTING,    !- Building Surface Name
    ,                        !- Outside Boundary Condition Object
    autocalculate,           !- View Factor to Ground
    ,                        !- Frame and Divider Name
    ,                        !- Multiplier
    4,                       !- Number of Vertices
    17.3727527449566,0.609570271752862,0.609570271752862,  !- X,Y,Z ==> Vertex 1 {m}
    17.3727527449566,0.609570271752862,0,  !- X,Y,Z ==> Vertex 2 {m}
    17.3727527449566,2.15635483632575,0,  !- X,Y,Z ==> Vertex 3 {m}
    17.3727527449566,2.15635483632575,0.609570271752862;  !- X,Y,Z ==> Vertex 4 {m}

                                        !- X,Y,Z  4 {m}
                                        !- X,Y,Z  1 {m}
                                        !- X,Y,Z  2 {m}
                                        !- X,Y,Z  3 {m}

  FenestrationSurface:Detailed,
    EAST FRAMED 2,           !- Name
    Door,                    !- Surface Type
    EXTERIOR WALL (FRAMING), !- Construction Name
    Z1 EAST WALL BATTING,    !- Building Surface Name
    ,                        !- Outside Boundary Condition Object
    autocalculate,           !- View Factor to Ground
    ,                        !- Frame and Divider Name
    ,                        !- Multiplier
    4,                       !- Number of Vertices
    17.3727527449566,5.66900352730162,0.609570271752862,  !- X,Y,Z ==> Vertex 1 {m}
    17.3727527449566,5.66900352730162,0,  !- X,Y,Z ==> Vertex 2 {m}
    17.3727527449566,7.2157880918745,0,  !- X,Y,Z ==> Vertex 3 {m}
    17.3727527449566,7.2157880918745,0.609570271752862;  !- X,Y,Z ==> Vertex 4 {m}

                                        !- X,Y,Z  4 {m}
                                        !- X,Y,Z  1 {m}

  FenestrationSurface:Detailed,
    WEST FRAMED 1,           !- Name
    Door,                    !- Surface Type
    EXTERIOR WALL (FRAMING), !- Construction Name
    Z1 WEST WALL BATTING,    !- Building Surface Name
    ,                        !- Outside Boundary Condition Object
    autocalculate,           !- View Factor to Ground
    ,                        !- Frame and Divider Name
    ,                        !- Multiplier
    4,                       !- Number of Vertices
    0,7.61962839691078,0.609570271752862,  !- X,Y,Z ==> Vertex 1 {m}
    0,7.61962839691078,0,  !- X,Y,Z ==> Vertex 2 {m}
    0,6.07284383233789,0,  !- X,Y,Z ==> Vertex 3 {m}
    0,6.07284383233789,0.609570271752862;  !- X,Y,Z ==> Vertex 4 {m}

                                        !- X,Y,Z  4 {m}
                                        !- X,Y,Z  1 {m}

  FenestrationSurface:Detailed,
    WEST FRAMED 2,           !- Name
    Door,                    !- Surface Type
    EXTERIOR WALL (FRAMING), !- Construction Name
    Z1 WEST WALL BATTING,    !- Building Surface Name
    ,                        !- Outside Boundary Condition Object
    autocalculate,           !- View Factor to Ground
    ,                        !- Frame and Divider Name
    ,                        !- Multiplier
    4,                       !- Number of Vertices
    0,2.049680038769,0.609570271752862,  !- X,Y,Z ==> Vertex 1 {m}
    0,2.049680038769,0,  !- X,Y,Z ==> Vertex 2 {m}
    0,0.502895474196111,0,  !- X,Y,Z ==> Vertex 3 {m}
    0,0.502895474196111,0.609570271752862;  !- X,Y,Z ==> Vertex 4 {m}

                                        !- X,Y,Z  4 {m}
                                        !- X,Y,Z  1 {m}
                                        !- X,Y,Z  2 {m}
                                        !- X,Y,Z  3 {m}

  FenestrationSurface:Detailed,
    NORTH FRAMED 2,          !- Name
    Door,                    !- Surface Type
    EXTERIOR WALL (FRAMING), !- Construction Name
    Z1 NORTH WALL BATTING,   !- Building Surface Name
    ,                        !- Outside Boundary Condition Object
    autocalculate,           !- View Factor to Ground
    ,                        !- Frame and Divider Name
    ,                        !- Multiplier
    4,                       !- Number of Vertices
    5.12496205976219,8.22919866866364,0.609570271752862,  !- X,Y,Z ==> Vertex 1 {m}
    0.972264583445815,8.22919866866364,0.609570271752862,  !- X,Y,Z ==> Vertex 2 {m}
    0.972264583445815,8.22919866866364,1.82871081525859,  !- X,Y,Z ==> Vertex 3 {m}