<%#INTERFACE
  parameter "case_name"
  parameter "ach", :default=>0.67
  parameter "win_panes", :default=>"WINDOW SINGLE PANE"
  parameter "int_load", :default=>2930.711
  parameter "ext_sol_abs_exposed", :default=>0.6 # applied to exterior face of exposed surfaces (exterior walls, roofs, end gables, doors)
%>

  VERSION,9.2;

  Building,
    <%= case_name %>,                   !- Name
    0.0,                     !- North Axis {deg}
    Suburbs,                 !- Terrain
    0.04,                    !- Loads Convergence Tolerance Value
    0.004,                   !- Temperature Convergence Tolerance Value {deltaC}
    FullInteriorAndExterior, !- Solar Distribution
    ,                        !- Maximum Number of Warmup Days
    6;                       !- Minimum Number of Warmup Days

  Timestep,4;

  SurfaceConvectionAlgorithm:Inside,TARP;

  SurfaceConvectionAlgorithm:Outside,DOE-2;

  HeatBalanceAlgorithm,ConductionTransferFunction;

  ShadowCalculation,
    AverageOverDaysInFrequency,  !- Calculation Method
    1;                       !- Calculation Frequency

  SimulationControl,
    No,                      !- Do Zone Sizing Calculation
    No,                      !- Do System Sizing Calculation
    No,                      !- Do Plant Sizing Calculation
    No,                      !- Run Simulation for Sizing Periods
    Yes;                     !- Run Simulation for Weather File Run Periods

  RunPeriod,
    RUNPERIOD 1,             !- Name
    1,                       !- Begin Month
    1,                       !- Begin Day of Month
    ,                        !- Begin Year
    12,                      !- End Month
    31,                      !- End Day of Month
    ,                        !- End Year
    ,                        !- Day of Week for Start Day
    No,                      !- Use Weather File Holidays and Special Days
    No,                      !- Use Weather File Daylight Saving Period
    No,                      !- Apply Weekend Holiday Rule
    No,                      !- Use Weather File Rain Indicators
    No,                      !- Use Weather File Snow Indicators
    ;                        !- Treat Weather as Actual
<% if case_name.include?("L155A") %>
Shading:Building,
  South Wall Overhang,     !- Name
  180,                     !- Azimuth Angle {deg}
  0,                       !- Tilt Angle {deg}
  0,                       !- Starting X Coordinate {m}
  -0.761962839691077,      !- Starting Y Coordinate {m}
  2.43828108701145,        !- Starting Z Coordinate {m}
  17.3727527449566,        !- Length {m}
  0.761962839691077;       !- Height {m}
<% end %>

Material:AirGap,
   AirGap,                  !- Name
   0.177871290333931;       !- Thermal Resistance {m2-K/W}

 Material,
   FIBERGLASS BATT R11,     !- Name
   Rough,                   !- Roughness
   8.89001802122336E-02,    !- Thickness {m}
   4.59277014191222E-02,    !- Conductivity {W/m-K}
   9.61107175253399,        !- Density {kg/m3}
   836.800006332062,        !- Specific Heat {J/kg-K}
   0.9,                     !- Thermal Absorptance
   0.6,                     !- Solar Absorptance
   0.6;                     !- Visible Absorptance

 Material,
   FIBERGLASS BATT R18,     !- Name
   Rough,                   !- Roughness
   0.139700283190653,       !- Thickness {m}
   4.77302014748178E-02,    !- Conductivity {W/m-K}
   10.8925479862052,        !- Density {kg/m3}
   836.800006332062,        !- Specific Heat {J/kg-K}
   0.9,                     !- Thermal Absorptance
   0.6,                     !- Solar Absorptance
   0.6;                     !- Visible Absorptance

 Material,
   FIBERGLASS BATT R38,     !- Name
   Rough,                   !- Roughness
   0.304800617870515,       !- Thickness {m}
   4.49904013901606E-02,    !- Conductivity {W/m-K}
   9.61107175253399,        !- Density {kg/m3}
   836.800006332062,        !- Specific Heat {J/kg-K}
   0.9,                     !- Thermal Absorptance
   0.6,                     !- Solar Absorptance
   0.6;

 Material,
   POLYISOCYANURATE BD INSUL,  !- Name
   Rough,                   !- Roughness
   2.54000514892096E-02,    !- Thickness {m}
   2.00438006193344E-02,    !- Conductivity {W/m-K}
   32.03690584178,          !- Density {kg/m3}
   920.480006965268,        !- Specific Heat {J/kg-K}
   0.9,                     !- Thermal Absorptance
   0.7,                     !- Solar Absorptance
   0.7;                     !- Visible Absorptance

 Material,
   L200 JOIST 2X6 24 OC,    !- Name
   Rough,                   !- Roughness
   8.89001802122336E-02,    !- Thickness {m}
   0.115576303571198,       !- Conductivity {W/m-K}
   512.590493468479,        !- Density {kg/m3}
   1380.7200104479,         !- Specific Heat {J/kg-K}
   0.9,                     !- Thermal Absorptance
   0.6,                     !- Solar Absorptance
   0.6;                     !- Visible Absorptance

<% if (case_name.include?("L100A")) || (case_name.include?("L110A")) || (case_name.include?("L120A")) || (case_name.include?("L170A")) || (case_name.include?("L200A")) || (case_name.include?("L202A"))%>
  Window,
    East 1,                  !- Name
    <%= win_panes %>,      !- Construction Name
    Z1 EAST WALL BATTING,    !- Building Surface Name
    Frame-Divider_1,         !- Frame and Divider Name
    1,                       !- Multiplier
    1.59377237461555,        !- Starting X Coordinate {m}
    0.679416966986256,       !- Starting Z Coordinate {m}
    0.774662321947641,       !- Length {m}
    1.3842325937005;         !- Height {m}

  Window,
    East 2,                  !- Name
    <%= win_panes %>,      !- Construction Name
    Z1 EAST WALL BATTING,    !- Building Surface Name
    Frame-Divider_1,         !- Frame and Divider Name
    1,                       !- Multiplier
    3.72726832575057,        !- Starting X Coordinate {m}
    0.679416966986256,       !- Starting Z Coordinate {m}
    0.774662321947641,       !- Length {m}
    1.3842325937005;         !- Height {m}

  Window,
    East 3,                  !- Name
    <%= win_panes %>,      !- Construction Name
    Z1 EAST WALL BATTING,    !- Building Surface Name
    Frame-Divider_1,         !- Frame and Divider Name
    1,                       !- Multiplier
    5.86076427688558,        !- Starting X Coordinate {m}
    0.679416966986256,       !- Starting Z Coordinate {m}
    0.774662321947641,       !- Length {m}
    1.3842325937005;         !- Height {m}

  Window,
    West 1,                  !- Name
    <%= win_panes %>,      !- Construction Name
    Z1 WEST WALL BATTING,    !- Building Surface Name
    Frame-Divider_1,         !- Frame and Divider Name
    1,                       !- Multiplier
    1.28898723873912,        !- Starting X Coordinate {m}
    0.679416966986256,       !- Starting Z Coordinate {m}
    0.774662321947641,       !- Length {m}
    1.3842325937005;         !- Height {m}

  Window,
    West 2,                  !- Name
    <%= win_panes %>,      !- Construction Name
    Z1 WEST WALL BATTING,    !- Building Surface Name
    Frame-Divider_1,         !- Frame and Divider Name
    1,                       !- Multiplier
    3.42248318987414,        !- Starting X Coordinate {m}
    0.679416966986256,       !- Starting Z Coordinate {m}
    0.774662321947641,       !- Length {m}
    1.3842325937005;         !- Height {m}

  Window,
    West 3,                  !- Name
    <%= win_panes %>,      !- Construction Name
    Z1 WEST WALL BATTING,    !- Building Surface Name
    Frame-Divider_1,         !- Frame and Divider Name
    1,                       !- Multiplier
    5.86076427688558,        !- Starting X Coordinate {m}
    0.679416966986256,       !- Starting Z Coordinate {m}
    0.774662321947641,       !- Length {m}
    1.3842325937005;         !- Height {m}

  Window,
    South 1,                 !- Name
    <%= win_panes %>,      !- Construction Name
    Z1 SOUTH WALL BATTING,   !- Building Surface Name
    Frame-Divider_1,         !- Frame and Divider Name
    1,                       !- Multiplier
    1.59377237461555,        !- Starting X Coordinate {m}
    0.679416966986256,       !- Starting Z Coordinate {m}
    0.774662321947641,       !- Length {m}
    1.3842325937005;         !- Height {m}

  Window,
    South 2,                 !- Name
    <%= win_panes %>,      !- Construction Name
    Z1 SOUTH WALL BATTING,   !- Building Surface Name
    Frame-Divider_1,         !- Frame and Divider Name
    1,                       !- Multiplier
    4.33683859750343,        !- Starting X Coordinate {m}
    0.679416966986256,       !- Starting Z Coordinate {m}
    0.774662321947641,       !- Length {m}
    1.3842325937005;         !- Height {m}

  Window,
    South 3,                 !- Name
    <%= win_panes %>,      !- Construction Name
    Z1 SOUTH WALL BATTING,   !- Building Surface Name
    Frame-Divider_1,         !- Frame and Divider Name
    1,                       !- Multiplier
    5.86076427688558,        !- Starting X Coordinate {m}
    0.679416966986256,       !- Starting Z Coordinate {m}
    0.774662321947641,       !- Length {m}
    1.3842325937005;         !- Height {m}

  Window,
    South 4,                 !- Name
    <%= win_panes %>,      !- Construction Name
    Z1 SOUTH WALL BATTING,   !- Building Surface Name
    Frame-Divider_1,         !- Frame and Divider Name
    1,                       !- Multiplier
    7.38468995626774,        !- Starting X Coordinate {m}
    0.679416966986256,       !- Starting Z Coordinate {m}
    0.774662321947641,       !- Length {m}
    1.3842325937005;         !- Height {m}

  Window,
    South 5,                 !- Name
    <%= win_panes %>,      !- Construction Name
    Z1 SOUTH WALL BATTING,   !- Building Surface Name
    Frame-Divider_1,         !- Frame and Divider Name
    1,                       !- Multiplier
    8.90861563564989,        !- Starting X Coordinate {m}
    0.679416966986256,       !- Starting Z Coordinate {m}
    0.774662321947641,       !- Length {m}
    1.3842325937005;         !- Height {m}

  Window,
    South 6,                 !- Name
    <%= win_panes %>,      !- Construction Name
    Z1 SOUTH WALL BATTING,   !- Building Surface Name
    Frame-Divider_1,         !- Frame and Divider Name
    1,                       !- Multiplier
    13.4803926737964,        !- Starting X Coordinate {m}
    0.679416966986256,       !- Starting Z Coordinate {m}
    0.774662321947641,       !- Length {m}
    1.3842325937005;         !- Height {m}

  Window,
    North 1,                 !- Name
    <%= win_panes %>,      !- Construction Name
    Z1 NORTH WALL BATTING,   !- Building Surface Name
    Frame-Divider_1,         !- Frame and Divider Name
    1,                       !- Multiplier
    1.59377237461555,        !- Starting X Coordinate {m}
    0.679416966986256,       !- Starting Z Coordinate {m}
    0.774662321947641,       !- Length {m}
    1.3842325937005;         !- Height {m}

  Window,
    North 2,                 !- Name
    <%= win_panes %>,      !- Construction Name
    Z1 NORTH WALL BATTING,   !- Building Surface Name
    Frame-Divider_1,         !- Frame and Divider Name
    1,                       !- Multiplier
    4.33683859750343,        !- Starting X Coordinate {m}
    0.679416966986256,       !- Starting Z Coordinate {m}
    0.774662321947641,       !- Length {m}
    1.3842325937005;         !- Height {m}

  Window,
    North 3,                 !- Name
    <%= win_panes %>,      !- Construction Name
    Z1 NORTH WALL BATTING,   !- Building Surface Name
    Frame-Divider_1,         !- Frame and Divider Name
    1,                       !- Multiplier
    8.60383049977346,        !- Starting X Coordinate {m}
    0.679416966986256,       !- Starting Z Coordinate {m}
    0.774662321947641,       !- Length {m}
    1.3842325937005;         !- Height {m}

  Window,
    North 4,                 !- Name
    <%= win_panes %>,      !- Construction Name
    Z1 NORTH WALL BATTING,   !- Building Surface Name
    Frame-Divider_1,         !- Frame and Divider Name
    1,                       !- Multiplier
    10.432541315032,         !- Starting X Coordinate {m}
    0.679416966986256,       !- Starting Z Coordinate {m}
    0.774662321947641,       !- Length {m}
    1.3842325937005;         !- Height {m}

  Window,
    North 5,                 !- Name
    <%= win_panes %>,      !- Construction Name
    Z1 NORTH WALL BATTING,   !- Building Surface Name
    Frame-Divider_1,         !- Frame and Divider Name
    1,                       !- Multiplier
    12.5660372661671,        !- Starting X Coordinate {m}
    0.679416966986256,       !- Starting Z Coordinate {m}
    0.774662321947641,       !- Length {m}
    1.3842325937005;         !- Height {m}

  Window,
    North 6,                 !- Name
    <%= win_panes %>,      !- Construction Name
    Z1 NORTH WALL BATTING,   !- Building Surface Name
    Frame-Divider_1,         !- Frame and Divider Name
    1,                       !- Multiplier
    14.0899629455492,        !- Starting X Coordinate {m}
    0.679416966986256,       !- Starting Z Coordinate {m}
    0.774662321947641,       !- Length {m}
    1.3842325937005;         !- Height {m}

<% elsif case_name.include?("L160A") %>

Window,
  East 1,                  !- Name
  <%= win_panes %>,      !- Construction Name
  Z1 EAST WALL BATTING,    !- Building Surface Name
  Frame-Divider_1,         !- Frame and Divider Name
  1,                       !- Multiplier
  6.98466952333941E-02,    !- Starting X Coordinate {m}
  0.679416966986256,       !- Starting Z Coordinate {m}
  0.774662321947641,       !- Length {m}
  1.3842325937005;         !- Height {m}

Window,
  East 2,                  !- Name
  <%= win_panes %>,      !- Construction Name
  Z1 EAST WALL BATTING,    !- Building Surface Name
  Frame-Divider_1,         !- Frame and Divider Name
  1,                       !- Multiplier
  0.984202102862687,       !- Starting X Coordinate {m}
  0.679416966986256,       !- Starting Z Coordinate {m}
  0.774662321947641,       !- Length {m}
  1.3842325937005;         !- Height {m}

Window,
  East 3,                  !- Name
  <%= win_panes %>,      !- Construction Name
  Z1 EAST WALL BATTING,    !- Building Surface Name
  Frame-Divider_1,         !- Frame and Divider Name
  1,                       !- Multiplier
  1.89855751049198,        !- Starting X Coordinate {m}
  0.679416966986256,       !- Starting Z Coordinate {m}
  0.774662321947641,       !- Length {m}
  1.3842325937005;         !- Height {m}

Window,
  East 4,                  !- Name
  <%= win_panes %>,      !- Construction Name
  Z1 EAST WALL BATTING,    !- Building Surface Name
  Frame-Divider_1,         !- Frame and Divider Name
  1,                       !- Multiplier
  2.81291291812127,        !- Starting X Coordinate {m}
  0.679416966986256,       !- Starting Z Coordinate {m}
  0.774662321947641,       !- Length {m}
  1.3842325937005;         !- Height {m}

Window,
  East 5,                  !- Name
  <%= win_panes %>,      !- Construction Name
  Z1 EAST WALL BATTING,    !- Building Surface Name
  Frame-Divider_1,         !- Frame and Divider Name
  1,                       !- Multiplier
  3.72726832575057,        !- Starting X Coordinate {m}
  0.679416966986256,       !- Starting Z Coordinate {m}
  0.774662321947641,       !- Length {m}
  1.3842325937005;         !- Height {m}

Window,
  East 6,                  !- Name
  <%= win_panes %>,      !- Construction Name
  Z1 EAST WALL BATTING,    !- Building Surface Name
  Frame-Divider_1,         !- Frame and Divider Name
  1,                       !- Multiplier
  4.64162373337986,        !- Starting X Coordinate {m}
  0.679416966986256,       !- Starting Z Coordinate {m}
  0.774662321947641,       !- Length {m}
  1.3842325937005;         !- Height {m}

Window,
  East 7,                  !- Name
  <%= win_panes %>,      !- Construction Name
  Z1 EAST WALL BATTING,    !- Building Surface Name
  Frame-Divider_1,         !- Frame and Divider Name
  1,                       !- Multiplier
  5.55597914100915,        !- Starting X Coordinate {m}
  0.679416966986256,       !- Starting Z Coordinate {m}
  0.774662321947641,       !- Length {m}
  1.3842325937005;         !- Height {m}

Window,
  East 8,                  !- Name
  <%= win_panes %>,      !- Construction Name
  Z1 EAST WALL BATTING,    !- Building Surface Name
  Frame-Divider_1,         !- Frame and Divider Name
  1,                       !- Multiplier
  6.47033454863845,        !- Starting X Coordinate {m}
  0.679416966986256,       !- Starting Z Coordinate {m}
  0.774662321947641,       !- Length {m}
  1.3842325937005;         !- Height {m}

Window,
  East 9,                  !- Name
  <%= win_panes %>,      !- Construction Name
  Z1 EAST WALL BATTING,    !- Building Surface Name
  Frame-Divider_1,         !- Frame and Divider Name
  1,                       !- Multiplier
  7.38468995626774,        !- Starting X Coordinate {m}
  0.679416966986256,       !- Starting Z Coordinate {m}
  0.774662321947641,       !- Length {m}
  1.3842325937005;         !- Height {m}

Window,
  West 1,                  !- Name
  <%= win_panes %>,      !- Construction Name
  Z1 WEST WALL BATTING,    !- Building Surface Name
  Frame-Divider_1,         !- Frame and Divider Name
  1,                       !- Multiplier
  6.98466952333941E-02,    !- Starting X Coordinate {m}
  0.679416966986256,       !- Starting Z Coordinate {m}
  0.774662321947641,       !- Length {m}
  1.3842325937005;         !- Height {m}

Window,
  West 2,                  !- Name
  <%= win_panes %>,      !- Construction Name
  Z1 WEST WALL BATTING,    !- Building Surface Name
  Frame-Divider_1,         !- Frame and Divider Name
  1,                       !- Multiplier
  0.984202102862687,       !- Starting X Coordinate {m}
  0.679416966986256,       !- Starting Z Coordinate {m}
  0.774662321947641,       !- Length {m}
  1.3842325937005;         !- Height {m}

Window,
  West 3,                  !- Name
  <%= win_panes %>,      !- Construction Name
  Z1 WEST WALL BATTING,    !- Building Surface Name
  Frame-Divider_1,         !- Frame and Divider Name
  1,                       !- Multiplier
  1.89855751049198,        !- Starting X Coordinate {m}
  0.679416966986256,       !- Starting Z Coordinate {m}
  0.774662321947641,       !- Length {m}
  1.3842325937005;         !- Height {m}

Window,
  West 4,                  !- Name
  <%= win_panes %>,      !- Construction Name
  Z1 WEST WALL BATTING,    !- Building Surface Name
  Frame-Divider_1,         !- Frame and Divider Name
  1,                       !- Multiplier
  2.81291291812127,        !- Starting X Coordinate {m}
  0.679416966986256,       !- Starting Z Coordinate {m}
  0.774662321947641,       !- Length {m}
  1.3842325937005;         !- Height {m}

Window,
  West 5,                  !- Name
  <%= win_panes %>,      !- Construction Name
  Z1 WEST WALL BATTING,    !- Building Surface Name
  Frame-Divider_1,         !- Frame and Divider Name
  1,                       !- Multiplier
  3.72726832575057,        !- Starting X Coordinate {m}
  0.679416966986256,       !- Starting Z Coordinate {m}
  0.774662321947641,       !- Length {m}
  1.3842325937005;         !- Height {m}

Window,
  West 6,                  !- Name
  <%= win_panes %>,      !- Construction Name
  Z1 WEST WALL BATTING,    !- Building Surface Name
  Frame-Divider_1,         !- Frame and Divider Name
  1,                       !- Multiplier
  4.64162373337986,        !- Starting X Coordinate {m}
  0.679416966986256,       !- Starting Z Coordinate {m}
  0.774662321947641,       !- Length {m}
  1.3842325937005;         !- Height {m}

Window,
  West 7,                  !- Name
  <%= win_panes %>,      !- Construction Name
  Z1 WEST WALL BATTING,    !- Building Surface Name
  Frame-Divider_1,         !- Frame and Divider Name
  1,                       !- Multiplier
  5.55597914100915,        !- Starting X Coordinate {m}
  0.679416966986256,       !- Starting Z Coordinate {m}
  0.774662321947641,       !- Length {m}
  1.3842325937005;         !- Height {m}

Window,
  West 8,                  !- Name
  <%= win_panes %>,      !- Construction Name
  Z1 WEST WALL BATTING,    !- Building Surface Name
  Frame-Divider_1,         !- Frame and Divider Name
  1,                       !- Multiplier
  6.47033454863845,        !- Starting X Coordinate {m}
  0.679416966986256,       !- Starting Z Coordinate {m}
  0.774662321947641,       !- Length {m}
  1.3842325937005;         !- Height {m}

Window,
  West 9,                  !- Name
  <%= win_panes %>,      !- Construction Name
  Z1 WEST WALL BATTING,    !- Building Surface Name
  Frame-Divider_1,         !- Frame and Divider Name
  1,                       !- Multiplier
  7.38468995626774,        !- Starting X Coordinate {m}
  0.679416966986256,       !- Starting Z Coordinate {m}
  0.774662321947641,       !- Length {m}
  1.3842325937005;         !- Height {m}

<% elsif (case_name.include?("L150A")) || (case_name.include?("L155A"))%>

Window,
  South 1,                 !- Name
  <%= win_panes %>,      !- Construction Name
  Z1 SOUTH WALL BATTING,   !- Building Surface Name
  Frame-Divider_1,         !- Frame and Divider Name
  1,                       !- Multiplier
  6.98466952333941E-02,    !- Starting X Coordinate {m}
  0.679416966986256,       !- Starting Z Coordinate {m}
  0.774662321947641,       !- Length {m}
  1.3842325937005;         !- Height {m}

Window,
  South 2,                 !- Name
  <%= win_panes %>,      !- Construction Name
  Z1 SOUTH WALL BATTING,   !- Building Surface Name
  Frame-Divider_1,         !- Frame and Divider Name
  1,                       !- Multiplier
  0.984202102862687,       !- Starting X Coordinate {m}
  0.679416966986256,       !- Starting Z Coordinate {m}
  0.774662321947641,       !- Length {m}
  1.3842325937005;         !- Height {m}

Window,
  South 3,                 !- Name
  <%= win_panes %>,      !- Construction Name
  Z1 SOUTH WALL BATTING,   !- Building Surface Name
  Frame-Divider_1,         !- Frame and Divider Name
  1,                       !- Multiplier
  1.89855751049198,        !- Starting X Coordinate {m}
  0.679416966986256,       !- Starting Z Coordinate {m}
  0.774662321947641,       !- Length {m}
  1.3842325937005;         !- Height {m}

Window,
  South 4,                 !- Name
  <%= win_panes %>,      !- Construction Name
  Z1 SOUTH WALL BATTING,   !- Building Surface Name
  Frame-Divider_1,         !- Frame and Divider Name
  1,                       !- Multiplier
  2.81291291812127,        !- Starting X Coordinate {m}
  0.679416966986256,       !- Starting Z Coordinate {m}
  0.774662321947641,       !- Length {m}
  1.3842325937005;         !- Height {m}

Window,
  South 5,                 !- Name
  <%= win_panes %>,      !- Construction Name
  Z1 SOUTH WALL BATTING,   !- Building Surface Name
  Frame-Divider_1,         !- Frame and Divider Name
  1,                       !- Multiplier
  3.72726832575057,        !- Starting X Coordinate {m}
  0.679416966986256,       !- Starting Z Coordinate {m}
  0.774662321947641,       !- Length {m}
  1.3842325937005;         !- Height {m}

Window,
  South 6,                 !- Name
  <%= win_panes %>,      !- Construction Name
  Z1 SOUTH WALL BATTING,   !- Building Surface Name
  Frame-Divider_1,         !- Frame and Divider Name
  1,                       !- Multiplier
  4.64162373337986,        !- Starting X Coordinate {m}
  0.679416966986256,       !- Starting Z Coordinate {m}
  0.774662321947641,       !- Length {m}
  1.3842325937005;         !- Height {m}

Window,
  South 7,                 !- Name
  <%= win_panes %>,      !- Construction Name
  Z1 SOUTH WALL BATTING,   !- Building Surface Name
  Frame-Divider_1,         !- Frame and Divider Name
  1,                       !- Multiplier
  5.55597914100915,        !- Starting X Coordinate {m}
  0.679416966986256,       !- Starting Z Coordinate {m}
  0.774662321947641,       !- Length {m}
  1.3842325937005;         !- Height {m}

Window,
  South 8,                 !- Name
  <%= win_panes %>,      !- Construction Name
  Z1 SOUTH WALL BATTING,   !- Building Surface Name
  Frame-Divider_1,         !- Frame and Divider Name
  1,                       !- Multiplier
  6.47033454863845,        !- Starting X Coordinate {m}
  0.679416966986256,       !- Starting Z Coordinate {m}
  0.774662321947641,       !- Length {m}
  1.3842325937005;         !- Height {m}

Window,
  South 9,                 !- Name
  <%= win_panes %>,      !- Construction Name
  Z1 SOUTH WALL BATTING,   !- Building Surface Name
  Frame-Divider_1,         !- Frame and Divider Name
  1,                       !- Multiplier
  7.38468995626774,        !- Starting X Coordinate {m}
  0.679416966986256,       !- Starting Z Coordinate {m}
  0.774662321947641,       !- Length {m}
  1.3842325937005;         !- Height {m}

Window,
  South 10,                !- Name
  <%= win_panes %>,      !- Construction Name
  Z1 SOUTH WALL BATTING,   !- Building Surface Name
  Frame-Divider_1,         !- Frame and Divider Name
  1,                       !- Multiplier
  8.29904536389703,        !- Starting X Coordinate {m}
  0.679416966986256,       !- Starting Z Coordinate {m}
  0.774662321947641,       !- Length {m}
  1.3842325937005;         !- Height {m}

Window,
  South 11,                !- Name
  <%= win_panes %>,      !- Construction Name
  Z1 SOUTH WALL BATTING,   !- Building Surface Name
  Frame-Divider_1,         !- Frame and Divider Name
  1,                       !- Multiplier
  9.21340077152632,        !- Starting X Coordinate {m}
  0.679416966986256,       !- Starting Z Coordinate {m}
  0.774662321947641,       !- Length {m}
  1.3842325937005;         !- Height {m}

Window,
  South 12,                !- Name
  <%= win_panes %>,      !- Construction Name
  Z1 SOUTH WALL BATTING,   !- Building Surface Name
  Frame-Divider_1,         !- Frame and Divider Name
  1,                       !- Multiplier
  11.0421115867849,        !- Starting X Coordinate {m}
  0.679416966986256,       !- Starting Z Coordinate {m}
  0.774662321947641,       !- Length {m}
  1.3842325937005;         !- Height {m}

Window,
  South 13,                !- Name
  <%= win_panes %>,      !- Construction Name
  Z1 SOUTH WALL BATTING,   !- Building Surface Name
  Frame-Divider_1,         !- Frame and Divider Name
  1,                       !- Multiplier
  11.9564669944142,        !- Starting X Coordinate {m}
  0.679416966986256,       !- Starting Z Coordinate {m}
  0.774662321947641,       !- Length {m}
  1.3842325937005;         !- Height {m}

Window,
  South 14,                !- Name
  <%= win_panes %>,      !- Construction Name
  Z1 SOUTH WALL BATTING,   !- Building Surface Name
  Frame-Divider_1,         !- Frame and Divider Name
  1,                       !- Multiplier
  12.8708224020435,        !- Starting X Coordinate {m}
  0.679416966986256,       !- Starting Z Coordinate {m}
  0.774662321947641,       !- Length {m}
  1.3842325937005;         !- Height {m}

Window,
  South 15,                !- Name
  <%= win_panes %>,      !- Construction Name
  Z1 SOUTH WALL BATTING,   !- Building Surface Name
  Frame-Divider_1,         !- Frame and Divider Name
  1,                       !- Multiplier
  13.7851778096728,        !- Starting X Coordinate {m}
  0.679416966986256,       !- Starting Z Coordinate {m}
  0.774662321947641,       !- Length {m}
  1.3842325937005;         !- Height {m}

Window,
  South 16,                !- Name
  <%= win_panes %>,      !- Construction Name
  Z1 SOUTH WALL BATTING,   !- Building Surface Name
  Frame-Divider_1,         !- Frame and Divider Name
  1,                       !- Multiplier
  14.6995332173021,        !- Starting X Coordinate {m}
  0.679416966986256,       !- Starting Z Coordinate {m}
  0.774662321947641,       !- Length {m}
  1.3842325937005;         !- Height {m}

Window,
  South 17,                !- Name
  <%= win_panes %>,      !- Construction Name
  Z1 SOUTH WALL BATTING,   !- Building Surface Name
  Frame-Divider_1,         !- Frame and Divider Name
  1,                       !- Multiplier
  15.6138886249314,        !- Starting X Coordinate {m}
  0.679416966986256,       !- Starting Z Coordinate {m}
  0.774662321947641,       !- Length {m}
  1.3842325937005;         !- Height {m}

Window,
  South 18,                !- Name
  <%= win_panes %>,      !- Construction Name
  Z1 SOUTH WALL BATTING,   !- Building Surface Name
  Frame-Divider_1,         !- Frame and Divider Name
  1,                       !- Multiplier
  16.5282440325607,        !- Starting X Coordinate {m}
  0.679416966986256,       !- Starting Z Coordinate {m}
  0.774662321947641,       !- Length {m}
  1.3842325937005;         !- Height {m}

<% end %>


  WindowProperty:FrameAndDivider,
    Frame-Divider_1,         !- Name
    6.98466952333941E-02,    !- Frame Width {m}
    ,                        !- Frame Outside Projection {m}
    ,                        !- Frame Inside Projection {m}
    51.649480578971,         !- Frame Conductance {W/m2-K}
    1,                       !- Ratio of Frame-Edge Glass Conductance to Center-Of-Glass Conductance